<?xml version="1.0" encoding="UTF-8"?>

<!-- generated on 2025-03-04 17:57:33 by Eclipse SUMO netedit Version 1.22.0
<neteditConfiguration xmlns:xsi="http://www.w3.org/2001/XMLSchema-instance" xsi:noNamespaceSchemaLocation="http://sumo.dlr.de/xsd/neteditConfiguration.xsd">

    <input>
        <sumo-net-file value="D:\new-sumo-traffic-simulation\netedit.net.xml"/>
    </input>

    <output>
        <output-file value="D:\new-sumo-traffic-simulation\netedit.net.xml"/>
    </output>

    <processing>
        <offset.disable-normalization value="true"/>
    </processing>

    <junctions>
        <no-turnarounds value="true"/>
    </junctions>

    <netedit>
        <new-network value="false"/>
    </netedit>

</neteditConfiguration>
-->

<net version="1.20" junctionCornerDetail="5" limitTurnSpeed="5.50" xmlns:xsi="http://www.w3.org/2001/XMLSchema-instance" xsi:noNamespaceSchemaLocation="http://sumo.dlr.de/xsd/net_file.xsd">

    <location netOffset="0.00,0.00" convBoundary="-100.00,-100.00,100.00,100.00" origBoundary="10000000000.00,10000000000.00,-10000000000.00,-10000000000.00" projParameter="!"/>

    <edge id=":J0_0" function="internal">
        <lane id=":J0_0_0" index="0" speed="6.51" length="9.03" shape="-14.40,20.00 -14.75,17.55 -15.80,15.80 -17.55,14.75 -20.00,14.40"/>
        <lane id=":J0_0_1" index="1" speed="7.33" length="11.73" shape="-14.40,20.00 -14.75,16.15 -15.80,13.40 -17.55,11.75 -20.00,11.20"/>
    </edge>
    <edge id=":J0_2" function="internal">
        <lane id=":J0_2_0" index="0" speed="13.80" length="40.00" shape="-11.20,20.00 -11.20,-20.00"/>
        <lane id=":J0_2_1" index="1" speed="13.80" length="40.00" shape="-8.00,20.00 -8.00,-20.00"/>
        <lane id=":J0_2_2" index="2" speed="13.80" length="40.00" shape="-4.80,20.00 -4.80,-20.00"/>
    </edge>
    <edge id=":J0_5" function="internal">
        <lane id=":J0_5_0" index="0" speed="12.72" length="16.33" shape="-1.60,20.00 -0.25,9.15 2.25,4.36"/>
        <lane id=":J0_5_1" index="1" speed="12.28" length="14.39" shape="-1.60,20.00 -0.25,10.55 2.24,6.40"/>
    </edge>
    <edge id=":J0_28" function="internal">
        <lane id=":J0_28_0" index="0" speed="12.72" length="21.12" shape="2.25,4.36 3.80,1.40 10.55,-3.25 20.00,-4.80"/>
        <lane id=":J0_28_1" index="0" speed="12.28" length="20.45" shape="2.24,6.40 3.80,3.80 10.55,-0.25 20.00,-1.60"/>
    </edge>
    <edge id=":J0_7" function="internal">
        <lane id=":J0_7_0" index="0" speed="6.51" length="9.03" shape="20.00,14.40 17.55,14.75 15.80,15.80 14.75,17.55 14.40,20.00"/>
    </edge>
    <edge id=":J0_8" function="internal">
        <lane id=":J0_8_0" index="0" speed="13.80" length="40.10" shape="20.00,11.20 -20.00,14.40"/>
        <lane id=":J0_8_1" index="1" speed="13.80" length="40.10" shape="20.00,8.00 -20.00,11.20"/>
        <lane id=":J0_8_2" index="2" speed="13.80" length="40.10" shape="20.00,4.80 -20.00,8.00"/>
        <lane id=":J0_8_3" index="3" speed="13.80" length="40.10" shape="20.00,4.80 -20.00,4.80"/>
        <lane id=":J0_8_4" index="4" speed="13.80" length="40.10" shape="20.00,4.80 -20.00,1.60"/>
    </edge>
    <edge id=":J0_13" function="internal">
        <lane id=":J0_13_0" index="0" speed="12.28" length="34.84" shape="20.00,1.60 10.55,0.25 3.80,-3.80 -0.25,-10.55 -1.60,-20.00"/>
    </edge>
    <edge id=":J0_14" function="internal">
        <lane id=":J0_14_0" index="0" speed="6.51" length="9.03" shape="14.40,-20.00 14.75,-17.55 15.80,-15.80 17.55,-14.75 20.00,-14.40"/>
        <lane id=":J0_14_1" index="1" speed="7.33" length="11.73" shape="14.40,-20.00 14.75,-16.15 15.80,-13.40 17.55,-11.75 20.00,-11.20"/>
    </edge>
    <edge id=":J0_16" function="internal">
        <lane id=":J0_16_0" index="0" speed="13.80" length="40.00" shape="11.20,-20.00 11.20,20.00"/>
        <lane id=":J0_16_1" index="1" speed="13.80" length="40.00" shape="8.00,-20.00 8.00,20.00"/>
        <lane id=":J0_16_2" index="2" speed="13.80" length="40.00" shape="4.80,-20.00 4.80,20.00"/>
    </edge>
    <edge id=":J0_19" function="internal">
        <lane id=":J0_19_0" index="0" speed="12.72" length="16.33" shape="1.60,-20.00 0.25,-9.15 -2.25,-4.36"/>
        <lane id=":J0_19_1" index="1" speed="12.28" length="14.39" shape="1.60,-20.00 0.25,-10.55 -2.24,-6.40"/>
    </edge>
    <edge id=":J0_29" function="internal">
        <lane id=":J0_29_0" index="0" speed="12.72" length="21.12" shape="-2.25,-4.36 -3.80,-1.40 -10.55,3.25 -20.00,4.80"/>
        <lane id=":J0_29_1" index="0" speed="12.28" length="20.45" shape="-2.24,-6.40 -3.80,-3.80 -10.55,0.25 -20.00,1.60"/>
    </edge>
    <edge id=":J0_21" function="internal">
        <lane id=":J0_21_0" index="0" speed="6.51" length="9.03" shape="-20.00,-14.40 -17.55,-14.75 -15.80,-15.80 -14.75,-17.55 -14.40,-20.00"/>
    </edge>
    <edge id=":J0_22" function="internal">
        <lane id=":J0_22_0" index="0" speed="13.80" length="40.10" shape="-20.00,-11.20 20.00,-14.40"/>
        <lane id=":J0_22_1" index="1" speed="13.80" length="40.10" shape="-20.00,-8.00 20.00,-11.20"/>
        <lane id=":J0_22_2" index="2" speed="13.80" length="40.10" shape="-20.00,-4.80 20.00,-8.00"/>
        <lane id=":J0_22_3" index="3" speed="13.80" length="40.10" shape="-20.00,-4.80 20.00,-4.80"/>
        <lane id=":J0_22_4" index="4" speed="13.80" length="40.10" shape="-20.00,-4.80 20.00,-1.60"/>
    </edge>
    <edge id=":J0_27" function="internal">
        <lane id=":J0_27_0" index="0" speed="12.28" length="34.84" shape="-20.00,-1.60 -10.55,-0.25 -3.80,3.80 0.25,10.55 1.60,20.00"/>
    </edge>

    <edge id="-E0" from="J1" to="J0" priority="-1">
        <lane id="-E0_0" index="0" speed="13.80" length="80.00" shape="-100.00,-14.40 -20.00,-14.40"/>
        <lane id="-E0_1" index="1" speed="13.80" length="80.00" shape="-100.00,-11.20 -20.00,-11.20"/>
        <lane id="-E0_2" index="2" speed="13.80" length="80.00" shape="-100.00,-8.00 -20.00,-8.00"/>
        <lane id="-E0_3" index="3" speed="13.80" length="80.00" shape="-100.00,-4.80 -20.00,-4.80"/>
        <lane id="-E0_4" index="4" speed="13.80" length="80.00" shape="-100.00,-1.60 -20.00,-1.60"/>
    </edge>
    <edge id="-E1" from="J0" to="J2" priority="-1">
        <lane id="-E1_0" index="0" speed="13.80" length="80.00" shape="20.00,-14.40 100.00,-14.40"/>
        <lane id="-E1_1" index="1" speed="13.80" length="80.00" shape="20.00,-11.20 100.00,-11.20"/>
        <lane id="-E1_2" index="2" speed="13.80" length="80.00" shape="20.00,-8.00 100.00,-8.00"/>
        <lane id="-E1_3" index="3" speed="13.80" length="80.00" shape="20.00,-4.80 100.00,-4.80"/>
        <lane id="-E1_4" index="4" speed="13.80" length="80.00" shape="20.00,-1.60 100.00,-1.60"/>
    </edge>
    <edge id="-E2" from="J0" to="J3" priority="-1">
        <lane id="-E2_0" index="0" speed="13.80" length="80.00" shape="14.40,20.00 14.40,100.00"/>
        <lane id="-E2_1" index="1" speed="13.80" length="80.00" shape="11.20,20.00 11.20,100.00"/>
        <lane id="-E2_2" index="2" speed="13.80" length="80.00" shape="8.00,20.00 8.00,100.00"/>
        <lane id="-E2_3" index="3" speed="13.80" length="80.00" shape="4.80,20.00 4.80,100.00"/>
        <lane id="-E2_4" index="4" speed="13.80" length="80.00" shape="1.60,20.00 1.60,100.00"/>
    </edge>
    <edge id="-E3" from="J0" to="J4" priority="-1">
        <lane id="-E3_0" index="0" speed="13.80" length="80.00" shape="-14.40,-20.00 -14.40,-100.00"/>
        <lane id="-E3_1" index="1" speed="13.80" length="80.00" shape="-11.20,-20.00 -11.20,-100.00"/>
        <lane id="-E3_2" index="2" speed="13.80" length="80.00" shape="-8.00,-20.00 -8.00,-100.00"/>
        <lane id="-E3_3" index="3" speed="13.80" length="80.00" shape="-4.80,-20.00 -4.80,-100.00"/>
        <lane id="-E3_4" index="4" speed="13.80" length="80.00" shape="-1.60,-20.00 -1.60,-100.00"/>
    </edge>
    <edge id="E0" from="J0" to="J1" priority="-1">
        <lane id="E0_0" index="0" speed="13.80" length="80.00" shape="-20.00,14.40 -100.00,14.40"/>
        <lane id="E0_1" index="1" speed="13.80" length="80.00" shape="-20.00,11.20 -100.00,11.20"/>
        <lane id="E0_2" index="2" speed="13.80" length="80.00" shape="-20.00,8.00 -100.00,8.00"/>
        <lane id="E0_3" index="3" speed="13.80" length="80.00" shape="-20.00,4.80 -100.00,4.80"/>
        <lane id="E0_4" index="4" speed="13.80" length="80.00" shape="-20.00,1.60 -100.00,1.60"/>
    </edge>
    <edge id="E1" from="J2" to="J0" priority="-1">
        <lane id="E1_0" index="0" speed="13.80" length="80.00" shape="100.00,14.40 20.00,14.40"/>
        <lane id="E1_1" index="1" speed="13.80" length="80.00" shape="100.00,11.20 20.00,11.20"/>
        <lane id="E1_2" index="2" speed="13.80" length="80.00" shape="100.00,8.00 20.00,8.00"/>
        <lane id="E1_3" index="3" speed="13.80" length="80.00" shape="100.00,4.80 20.00,4.80"/>
        <lane id="E1_4" index="4" speed="13.80" length="80.00" shape="100.00,1.60 20.00,1.60"/>
    </edge>
    <edge id="E2" from="J3" to="J0" priority="-1">
        <lane id="E2_0" index="0" speed="13.80" length="80.00" shape="-14.40,100.00 -14.40,20.00"/>
        <lane id="E2_1" index="1" speed="13.80" length="80.00" shape="-11.20,100.00 -11.20,20.00"/>
        <lane id="E2_2" index="2" speed="13.80" length="80.00" shape="-8.00,100.00 -8.00,20.00"/>
        <lane id="E2_3" index="3" speed="13.80" length="80.00" shape="-4.80,100.00 -4.80,20.00"/>
        <lane id="E2_4" index="4" speed="13.80" length="80.00" shape="-1.60,100.00 -1.60,20.00"/>
    </edge>
    <edge id="E3" from="J4" to="J0" priority="-1">
        <lane id="E3_0" index="0" speed="13.80" length="80.00" shape="14.40,-100.00 14.40,-20.00"/>
        <lane id="E3_1" index="1" speed="13.80" length="80.00" shape="11.20,-100.00 11.20,-20.00"/>
        <lane id="E3_2" index="2" speed="13.80" length="80.00" shape="8.00,-100.00 8.00,-20.00"/>
        <lane id="E3_3" index="3" speed="13.80" length="80.00" shape="4.80,-100.00 4.80,-20.00"/>
        <lane id="E3_4" index="4" speed="13.80" length="80.00" shape="1.60,-100.00 1.60,-20.00"/>
    </edge>

    <junction id="J0" type="priority" x="0.00" y="0.00" incLanes="E2_0 E2_1 E2_2 E2_3 E2_4 E1_0 E1_1 E1_2 E1_3 E1_4 E3_0 E3_1 E3_2 E3_3 E3_4 -E0_0 -E0_1 -E0_2 -E0_3 -E0_4" intLanes=":J0_0_0 :J0_0_1 :J0_2_0 :J0_2_1 :J0_2_2 :J0_28_0 :J0_28_1 :J0_7_0 :J0_8_0 :J0_8_1 :J0_8_2 :J0_8_3 :J0_8_4 :J0_13_0 :J0_14_0 :J0_14_1 :J0_16_0 :J0_16_1 :J0_16_2 :J0_29_0 :J0_29_1 :J0_21_0 :J0_22_0 :J0_22_1 :J0_22_2 :J0_22_3 :J0_22_4 :J0_27_0" shape="-16.00,20.00 16.00,20.00 16.44,17.78 17.00,17.00 17.78,16.44 18.78,16.11 20.00,16.00 20.00,-16.00 17.78,-16.44 17.00,-17.00 16.44,-17.78 16.11,-18.78 16.00,-20.00 -16.00,-20.00 -16.44,-17.78 -17.00,-17.00 -17.78,-16.44 -18.78,-16.11 -20.00,-16.00 -20.00,16.00 -17.78,16.44 -17.00,17.00 -16.44,17.78 -16.11,18.78">
        <request index="0"  response="0000000000000000000000000000" foes="0000000000000001111100000000" cont="0"/>
        <request index="1"  response="0000000000000000000000000000" foes="0000000000000001111100000000" cont="0"/>
        <request index="2"  response="0000000000000000000000000000" foes="1111110110000001111100000000" cont="0"/>
        <request index="3"  response="0000000000000000000000000000" foes="1111110110000001111100000000" cont="0"/>
        <request index="4"  response="0000000000000000000000000000" foes="1111110110000001111100000000" cont="0"/>
        <request index="5"  response="0000000001110000000000000000" foes="1111110001110011111100000000" cont="1"/>
        <request index="6"  response="0000000001110000000000000000" foes="1111110001110011111100000000" cont="1"/>
        <request index="7"  response="0000000000000000000000000000" foes="0000000000000000000000000000" cont="0"/>
        <request index="8"  response="0000000111110000000001111111" foes="1000000111110000000001111111" cont="0"/>
        <request index="9"  response="0000000111110000000001111111" foes="1000000111110000000001111111" cont="0"/>
        <request index="10" response="0000000111110000000001111111" foes="1000000111110000000001111111" cont="0"/>
        <request index="11" response="0000000111110000000001111111" foes="1000000111110000000001111111" cont="0"/>
        <request index="12" response="0000000111110000000001111111" foes="1000000111110000000001111111" cont="0"/>
        <request index="13" response="0111110111110000000001100000" foes="0111110111110000000001100000" cont="0"/>
        <request index="14" response="0000000000000000000000000000" foes="0111110000000000000000000000" cont="0"/>
        <request index="15" response="0000000000000000000000000000" foes="0111110000000000000000000000" cont="0"/>
        <request index="16" response="0000000000000000000000000000" foes="0111110000000011111101100000" cont="0"/>
        <request index="17" response="0000000000000000000000000000" foes="0111110000000011111101100000" cont="0"/>
        <request index="18" response="0000000000000000000000000000" foes="0111110000000011111101100000" cont="0"/>
        <request index="19" response="0000000000000000000000011100" foes="1111110000000011111100011100" cont="1"/>
        <request index="20" response="0000000000000000000000011100" foes="1111110000000011111100011100" cont="1"/>
        <request index="21" response="0000000000000000000000000000" foes="0000000000000000000000000000" cont="0"/>
        <request index="22" response="0000000111111100000001111100" foes="0000000111111110000001111100" cont="0"/>
        <request index="23" response="0000000111111100000001111100" foes="0000000111111110000001111100" cont="0"/>
        <request index="24" response="0000000111111100000001111100" foes="0000000111111110000001111100" cont="0"/>
        <request index="25" response="0000000111111100000001111100" foes="0000000111111110000001111100" cont="0"/>
        <request index="26" response="0000000111111100000001111100" foes="0000000111111110000001111100" cont="0"/>
        <request index="27" response="0000000110000001111101111100" foes="0000000110000001111101111100" cont="0"/>
    </junction>
    <junction id="J1" type="dead_end" x="-100.00" y="0.00" incLanes="E0_0 E0_1 E0_2 E0_3 E0_4" intLanes="" shape="-100.00,0.00 -100.00,16.00 -100.00,0.00"/>
    <junction id="J2" type="dead_end" x="100.00" y="0.00" incLanes="-E1_0 -E1_1 -E1_2 -E1_3 -E1_4" intLanes="" shape="100.00,0.00 100.00,-16.00 100.00,0.00"/>
    <junction id="J3" type="dead_end" x="0.00" y="100.00" incLanes="-E2_0 -E2_1 -E2_2 -E2_3 -E2_4" intLanes="" shape="0.00,100.00 16.00,100.00 0.00,100.00"/>
    <junction id="J4" type="dead_end" x="0.00" y="-100.00" incLanes="-E3_0 -E3_1 -E3_2 -E3_3 -E3_4" intLanes="" shape="0.00,-100.00 -16.00,-100.00 0.00,-100.00"/>

    <junction id=":J0_28_0" type="internal" x="2.25" y="4.36" incLanes=":J0_5_0 E3_0 E3_1 E3_2 E3_3" intLanes=":J0_8_0 :J0_8_1 :J0_8_2 :J0_8_3 :J0_8_4 :J0_13_0 :J0_14_0 :J0_14_1 :J0_16_0 :J0_16_1 :J0_16_2 :J0_22_0 :J0_22_1 :J0_22_2 :J0_22_3 :J0_22_4 :J0_27_0"/>
    <junction id=":J0_28_1" type="internal" x="2.24" y="6.40" incLanes=":J0_5_1 E3_0 E3_1 E3_2 E3_3" intLanes=":J0_8_0 :J0_8_1 :J0_8_2 :J0_8_3 :J0_8_4 :J0_13_0 :J0_14_0 :J0_14_1 :J0_16_0 :J0_16_1 :J0_16_2 :J0_22_0 :J0_22_1 :J0_22_2 :J0_22_3 :J0_22_4 :J0_27_0"/>
    <junction id=":J0_29_0" type="internal" x="-2.25" y="-4.36" incLanes=":J0_19_0 E2_0 E2_1 E2_2 E2_3" intLanes=":J0_0_0 :J0_0_1 :J0_2_0 :J0_2_1 :J0_2_2 :J0_8_0 :J0_8_1 :J0_8_2 :J0_8_3 :J0_8_4 :J0_13_0 :J0_22_0 :J0_22_1 :J0_22_2 :J0_22_3 :J0_22_4 :J0_27_0"/>
    <junction id=":J0_29_1" type="internal" x="-2.24" y="-6.40" incLanes=":J0_19_1 E2_0 E2_1 E2_2 E2_3" intLanes=":J0_0_0 :J0_0_1 :J0_2_0 :J0_2_1 :J0_2_2 :J0_8_0 :J0_8_1 :J0_8_2 :J0_8_3 :J0_8_4 :J0_13_0 :J0_22_0 :J0_22_1 :J0_22_2 :J0_22_3 :J0_22_4 :J0_27_0"/>

    <connection from="-E0" to="-E3" fromLane="0" toLane="0" via=":J0_21_0" dir="r" state="M"/>
    <connection from="-E0" to="-E1" fromLane="1" toLane="0" via=":J0_22_0" dir="s" state="m"/>
    <connection from="-E0" to="-E1" fromLane="2" toLane="1" via=":J0_22_1" dir="s" state="m"/>
    <connection from="-E0" to="-E1" fromLane="3" toLane="2" via=":J0_22_2" dir="s" state="m"/>
    <connection from="-E0" to="-E1" fromLane="3" toLane="3" via=":J0_22_3" dir="s" state="m"/>
    <connection from="-E0" to="-E1" fromLane="3" toLane="4" via=":J0_22_4" dir="s" state="m"/>
    <connection from="-E0" to="-E2" fromLane="4" toLane="4" via=":J0_27_0" dir="l" state="m"/>
    <connection from="E1" to="-E2" fromLane="0" toLane="0" via=":J0_7_0" dir="r" state="M"/>
    <connection from="E1" to="E0" fromLane="1" toLane="0" via=":J0_8_0" dir="s" state="m"/>
    <connection from="E1" to="E0" fromLane="2" toLane="1" via=":J0_8_1" dir="s" state="m"/>
    <connection from="E1" to="E0" fromLane="3" toLane="2" via=":J0_8_2" dir="s" state="m"/>
    <connection from="E1" to="E0" fromLane="3" toLane="3" via=":J0_8_3" dir="s" state="m"/>
    <connection from="E1" to="E0" fromLane="3" toLane="4" via=":J0_8_4" dir="s" state="m"/>
    <connection from="E1" to="-E3" fromLane="4" toLane="4" via=":J0_13_0" dir="l" state="m"/>
    <connection from="E2" to="E0" fromLane="0" toLane="0" via=":J0_0_0" dir="r" state="M"/>
    <connection from="E2" to="E0" fromLane="0" toLane="1" via=":J0_0_1" dir="r" state="M"/>
    <connection from="E2" to="-E3" fromLane="1" toLane="1" via=":J0_2_0" dir="s" state="M"/>
    <connection from="E2" to="-E3" fromLane="2" toLane="2" via=":J0_2_1" dir="s" state="M"/>
    <connection from="E2" to="-E3" fromLane="3" toLane="3" via=":J0_2_2" dir="s" state="M"/>
    <connection from="E2" to="-E1" fromLane="4" toLane="3" via=":J0_5_0" dir="l" state="m"/>
    <connection from="E2" to="-E1" fromLane="4" toLane="4" via=":J0_5_1" dir="l" state="m"/>
    <connection from="E3" to="-E1" fromLane="0" toLane="0" via=":J0_14_0" dir="r" state="M"/>
    <connection from="E3" to="-E1" fromLane="0" toLane="1" via=":J0_14_1" dir="r" state="M"/>
    <connection from="E3" to="-E2" fromLane="1" toLane="1" via=":J0_16_0" dir="s" state="M"/>
    <connection from="E3" to="-E2" fromLane="2" toLane="2" via=":J0_16_1" dir="s" state="M"/>
    <connection from="E3" to="-E2" fromLane="3" toLane="3" via=":J0_16_2" dir="s" state="M"/>
    <connection from="E3" to="E0" fromLane="4" toLane="3" via=":J0_19_0" dir="l" state="m"/>
    <connection from="E3" to="E0" fromLane="4" toLane="4" via=":J0_19_1" dir="l" state="m"/>

    <connection from=":J0_0" to="E0" fromLane="0" toLane="0" dir="r" state="M"/>
    <connection from=":J0_0" to="E0" fromLane="1" toLane="1" dir="r" state="M"/>
    <connection from=":J0_2" to="-E3" fromLane="0" toLane="1" dir="s" state="M"/>
    <connection from=":J0_2" to="-E3" fromLane="1" toLane="2" dir="s" state="M"/>
    <connection from=":J0_2" to="-E3" fromLane="2" toLane="3" dir="s" state="M"/>
    <connection from=":J0_5" to="-E1" fromLane="0" toLane="3" via=":J0_28_0" dir="l" state="m"/>
    <connection from=":J0_28" to="-E1" fromLane="0" toLane="3" dir="l" state="M"/>
    <connection from=":J0_5" to="-E1" fromLane="1" toLane="4" via=":J0_28_1" dir="l" state="m"/>
    <connection from=":J0_28" to="-E1" fromLane="1" toLane="4" dir="l" state="M"/>
    <connection from=":J0_7" to="-E2" fromLane="0" toLane="0" dir="r" state="M"/>
    <connection from=":J0_8" to="E0" fromLane="0" toLane="0" dir="s" state="M"/>
    <connection from=":J0_8" to="E0" fromLane="1" toLane="1" dir="s" state="M"/>
    <connection from=":J0_8" to="E0" fromLane="2" toLane="2" dir="s" state="M"/>
    <connection from=":J0_8" to="E0" fromLane="3" toLane="3" dir="s" state="M"/>
    <connection from=":J0_8" to="E0" fromLane="4" toLane="4" dir="s" state="M"/>
    <connection from=":J0_13" to="-E3" fromLane="0" toLane="4" dir="l" state="M"/>
    <connection from=":J0_14" to="-E1" fromLane="0" toLane="0" dir="r" state="M"/>
    <connection from=":J0_14" to="-E1" fromLane="1" toLane="1" dir="r" state="M"/>
    <connection from=":J0_16" to="-E2" fromLane="0" toLane="1" dir="s" state="M"/>
    <connection from=":J0_16" to="-E2" fromLane="1" toLane="2" dir="s" state="M"/>
    <connection from=":J0_16" to="-E2" fromLane="2" toLane="3" dir="s" state="M"/>
    <connection from=":J0_19" to="E0" fromLane="0" toLane="3" via=":J0_29_0" dir="l" state="m"/>
    <connection from=":J0_29" to="E0" fromLane="0" toLane="3" dir="l" state="M"/>
    <connection from=":J0_19" to="E0" fromLane="1" toLane="4" via=":J0_29_1" dir="l" state="m"/>
    <connection from=":J0_29" to="E0" fromLane="1" toLane="4" dir="l" state="M"/>
    <connection from=":J0_21" to="-E3" fromLane="0" toLane="0" dir="r" state="M"/>
    <connection from=":J0_22" to="-E1" fromLane="0" toLane="0" dir="s" state="M"/>
    <connection from=":J0_22" to="-E1" fromLane="1" toLane="1" dir="s" state="M"/>
    <connection from=":J0_22" to="-E1" fromLane="2" toLane="2" dir="s" state="M"/>
    <connection from=":J0_22" to="-E1" fromLane="3" toLane="3" dir="s" state="M"/>
    <connection from=":J0_22" to="-E1" fromLane="4" toLane="4" dir="s" state="M"/>
    <connection from=":J0_27" to="-E2" fromLane="0" toLane="4" dir="l" state="M"/>

</net>
